/*--------------------------------*- C++ -*----------------------------------*\
| =========                 |                                                 |
| \\      /  F ield         | OpenFOAM: The Open Source CFD Toolbox           |
|  \\    /   O peration     | Version:  2412                                  |
|   \\  /    A nd           | Website:  www.openfoam.com                      |
|    \\/     M anipulation  |                                                 |
\*---------------------------------------------------------------------------*/
FoamFile
{
    version     2.0;
    format      ascii;
    arch        "LSB;label=32;scalar=64";
    class       vectorListList;
    location    "/home/nam-ha-tran/OpenFOAM/DGFoam/applications/test/testCase/processor2/constant/polyMesh";
    object      dgFacePhysicGauss;
}
// * * * * * * * * * * * * * * * * * * * * * * * * * * * * * * * * * * * * * //


61
(
0()
0()
0()
0()
0()
0()
0()
0()
0()
0()
0()
0()
0()
0()
0()
0()
0()
0()
0()
0()
0()
0()
0()
0()
0()
0()
0()
0()
0()
0()
0()
0()
0()
0()
0()
0()
0()
0()
0()
0()
0()
0()
0()
0()
0()
0()
0()
4((0.318038 0.328166 0.25) (0.421962 0.340241 0.25) (0.318038 0.467259 0.25) (0.421962 0.476834 0.25))
4((0.64 0.365576 0.302831) (0.64 0.496924 0.302831) (0.64 0.365576 0.447169) (0.64 0.496924 0.447169))
4((0.318038 0.277255 0.0528312) (0.318038 0.277255 0.197169) (0.421962 0.290245 0.0528312) (0.421962 0.290245 0.197169))
4((0.318038 0.51817 0.0528312) (0.318038 0.51817 0.197169) (0.421962 0.52683 0.0528312) (0.421962 0.52683 0.197169))
4((0.318038 0.277255 0.302831) (0.318038 0.277255 0.447169) (0.421962 0.290245 0.302831) (0.421962 0.290245 0.447169))
4((0.318038 0.51817 0.302831) (0.318038 0.51817 0.447169) (0.421962 0.52683 0.302831) (0.421962 0.52683 0.447169))
4((0.0105662 0.0528312 0.25) (0.0394338 0.0528312 0.25) (0.0105662 0.197169 0.25) (0.0394338 0.197169 0.25))
4((0.0105662 0.5 0.0528312) (0.0105662 0.5 0.197169) (0.0394338 0.5 0.0528312) (0.0394338 0.5 0.197169))
4((0.0605662 0.302831 0.25) (0.0894338 0.302831 0.25) (0.0605662 0.447169 0.25) (0.0894338 0.447169 0.25))
4((0.0605662 0.25 0.302831) (0.0605662 0.25 0.447169) (0.0894338 0.25 0.302831) (0.0894338 0.25 0.447169))
4((0.0105662 0.5 0.302831) (0.0105662 0.5 0.447169) (0.0394338 0.5 0.302831) (0.0394338 0.5 0.447169))
4((0.1 0.302831 0.302831) (0.1 0.447169 0.302831) (0.1 0.302831 0.447169) (0.1 0.447169 0.447169))
4((0.138038 0.307251 0.25) (0.241962 0.319326 0.25) (0.138038 0.450674 0.25) (0.241962 0.460249 0.25))
4((0.46 0.344661 0.302831) (0.46 0.480339 0.302831) (0.46 0.344661 0.447169) (0.46 0.480339 0.447169))
)

