/*---------------------------------------------------------------------------*\
  =========                 |
  \\      /  F ield         | OpenFOAM: The Open Source CFD Toolbox
   \\    /   O peration     |
    \\  /    A nd           | www.openfoam.com
     \\/     M anipulation  |
-------------------------------------------------------------------------------
\*---------------------------------------------------------------------------*/

FoamFile
{
    version     2.0;
    format      ascii;
    class       dictionary;
    object      blockMeshDict;
}

convertToMeters 1.0;

// * * * * * * * * * * * * * * * * Vertices * * * * * * * * * * * * * * * * * //

vertices
(
    // ===== z = 0 =====
    (0.0   0.00  0)    // 0 A
    (0.0   1.00  0)    // 1 B
    (0.1   1.00  0)    // 2 F
    (0.1   0.00  0)    // 3 E

    (1.0   1.00  0)    // 4 C
    (1.0   0.15  0)    // 5 D

    // ===== z = 0.5 =====
    (0.0   0.00  0.5)  // 6
    (0.0   1.00  0.5)  // 7
    (0.1   1.00  0.5)  // 8
    (0.1   0.00  0.5)  // 9

    (1.0   1.00  0.5)  //10
    (1.0   0.15  0.5)  //11
);

// * * * * * * * * * * * * * * * * Blocks * * * * * * * * * * * * * * * * * //

blocks
(
    // Block 1: x = 0 -> 0.1
    hex (0 3 2 1 6 9 8 7)
    (2 20 10)
    simpleGrading (1 1 1)

    // Block 2: x = 0.1 -> 1.0
    hex (3 5 4 2 9 11 10 8)
    (18 20 10)
    simpleGrading (1 1 1)
);

// * * * * * * * * * * * * * * * * Edges * * * * * * * * * * * * * * * * * * //

edges
(
);

// * * * * * * * * * * * * * * * * Boundary * * * * * * * * * * * * * * * * //

boundary
(
    inlet
    {
        type patch;
        faces
        (
            (0 6 7 1)
        );
    }

    outlet2
    {
        type patch;
        faces
        (
            (1 7 10 4)
        );
    }

    outlet1
    {
        type patch;
        faces
        (
            (4 10 11 5)
        );
    }

    wall
    {
        type wall;
        faces
        (
            (5 11 9 3)
        );
    }

    symmetryBottom
    {
        type symmetryPlane;
        faces
        (
            (0 3 9 6)   // ONLY x ∈ [0, 0.1]
        );
    }

    symmetryZ0
    {
        type symmetryPlane;
        faces
        (
            (0 1 2 3)
            (3 2 4 5)
        );
    }

    symmetryZ05
    {
        type symmetryPlane;
        faces
        (
            (6 9 8 7)
            (9 11 10 8)
        );
    }
);

mergePatchPairs
(
);

// ************************************************************************* //

