/*--------------------------------*- C++ -*----------------------------------*\
| =========                 |                                                 |
| \\      /  F ield         | OpenFOAM: The Open Source CFD Toolbox           |
|  \\    /   O peration     | Version:  v2412                                 |
|   \\  /    A nd           | Website:  www.openfoam.com                      |
|    \\/     M anipulation  |                                                 |


\*---------------------------------------------------------------------------*/
FoamFile
{
    version     2.0;
    format      ascii;
    class       dictionary;
    object      dgSchemes;
}
// * * * * * * * * * * * * * * * * * * * * * * * * * * * * * * * * * * * * * //
ddtSchemes
{
	scheme					Euler;
}
fluxSchemes
{
	fluxSolvers
	{
		default         		central;
		
		massConvTermFlux		HLLC;
		momentumConvTermFlux		LaxFriedrichs;
		energyConvTermFlux		LaxFriedrichs;
		
		/* Các flux khác bao gồm:
		- auxiliaryFlux
		- massDiffusiveFlux
		- momentumDiffusiveFlux
		- energyConvTermFlux
		- energyDiffusiveFlux
		Vì không khai báo trong dict nên nhận scheme pureCentral
		*/
	}
	
	fluxSolversCoeffs
	{
		// Khai báo chi tiết cho các flux solver được dùng trong dict, ví dụ HLLE flux cần để user chọn speedEstimate method là roeEinfeldt hay davis
		HLLCCoeffs
		{
			speedEstimate roeEinfeldt;
		}
	}
}
// ************************************************************************* //
