/*--------------------------------*- C++ -*----------------------------------*\
| =========                 |                                                 |
| \\      /  F ield         | OpenFOAM: The Open Source CFD Toolbox           |
|  \\    /   O peration     | Version:  2412                                  |
|   \\  /    A nd           | Website:  www.openfoam.com                      |
|    \\/     M anipulation  |                                                 |
\*---------------------------------------------------------------------------*/
FoamFile
{
    version     2.0;
    format      ascii;
    arch        "LSB;label=32;scalar=64";
    class       polyBoundaryMesh;
    location    "constant/polyMesh";
    object      boundary;
}
// * * * * * * * * * * * * * * * * * * * * * * * * * * * * * * * * * * * * * //

7
(
    inlet
    {
        type            patch;
        nFaces          768;
        startFace       471424;
    }
    outlet2
    {
        type            patch;
        nFaces          896;
        startFace       472192;
    }
    outlet1
    {
        type            patch;
        nFaces          768;
        startFace       473088;
    }
    wall
    {
        type            wall;
        inGroups        1(wall);
        nFaces          704;
        startFace       473856;
    }
    symmetryBottom
    {
        type            symmetry;
        inGroups        1(symmetry);
        nFaces          192;
        startFace       474560;
    }
    symmetryZ0
    {
        type            symmetry;
        inGroups        1(symmetry);
        nFaces          43008;
        startFace       474752;
    }
    symmetryZ05
    {
        type            symmetry;
        inGroups        1(symmetry);
        nFaces          43008;
        startFace       517760;
    }
)

// ************************************************************************* //
