/*--------------------------------*- C++ -*----------------------------------*\
| =========                 |                                                 |
| \\      /  F ield         | OpenFOAM: The Open Source CFD Toolbox           |
|  \\    /   O peration     | Version:  v2412                                 |
|   \\  /    A nd           | Website:  www.openfoam.com                      |
|    \\/     M anipulation  |                                                 |
\*---------------------------------------------------------------------------*/
FoamFile
{
    version     2.0;
    format      ascii;
    class       dictionary;
    object      pBC;
}
// * * * * * * * * * * * * * * * * * * * * * * * * * * * * * * * * * * * * * //

internalField   uniform 1.17;

boundaryField
{
    inlet
    {
        type            generalFixedValue;
	value           1.17;
    }
    outlet2
    {
        type            generalZeroGradient;
    }
    outlet1
    {
        type            generalZeroGradient;
    }
    wall
    {
        type            generalZeroGradient;
    }
    symmetryBottom
    {
        type            generalSymmetry;
    }
    symmetryZ0
    {
        type            generalSymmetry;
    }
    symmetryZ05
    {
        type            generalSymmetry;
    }
}


// ************************************************************************* //
