/*--------------------------------*- C++ -*----------------------------------*\
| =========                 |                                                 |
| \\      /  F ield         | OpenFOAM: The Open Source CFD Toolbox           |
|  \\    /   O peration     | Version:  v2412                                 |
|   \\  /    A nd           | Website:  www.openfoam.com                      |
|    \\/     M anipulation  |                                                 |
\*---------------------------------------------------------------------------*/
FoamFile
{
	version  2.0;
    format  ascii;
    class  volScalarField;
    location "0";
    object  E_0;
}
// * * * * * * * * * * * * * * * * * * * * * * * * * * * * * * * * * * * * * //

dimensions [0 0 0 0 0 0 0];
internalField   uniform 36.80;

boundaryField
{
    wall-4
    {
        type            calculated;
		value           uniform 36.80;
    }

    velocity-inlet-5
    {
        type            calculated;
		value           uniform 36.80;
    }

    velocity-inlet-6
    {
        type            calculated;
		value           uniform 36.80;
    }

    pressure-outlet-7
    {
        type            calculated;
		value           uniform 36.80;
    }

    wall-8
    {
        type            calculated;
		value           uniform 36.80;
    }

    frontAndBackPlanes
    {
        type            calculated;
		value           uniform 36.80;
    }
}


// ************************************************************************* //
