/*--------------------------------*- C++ -*----------------------------------*\
| =========                 |                                                 |
| \\      /  F ield         | OpenFOAM: The Open Source CFD Toolbox           |
|  \\    /   O peration     | Version:  2412                                  |
|   \\  /    A nd           | Website:  www.openfoam.com                      |
|    \\/     M anipulation  |                                                 |
\*---------------------------------------------------------------------------*/
FoamFile
{
    version     2.0;
    format      ascii;
    arch        "LSB;label=32;scalar=64";
    class       vectorListList;
    location    "/home/nam-ha-tran/OpenFOAM/DGFoam/applications/test/testCase/processor0/constant/polyMesh";
    object      dgFacePhysicGauss;
}
// * * * * * * * * * * * * * * * * * * * * * * * * * * * * * * * * * * * * * //


61
(
0()
0()
0()
0()
0()
0()
0()
0()
0()
0()
0()
0()
0()
0()
0()
0()
0()
0()
0()
0()
0()
0()
0()
0()
0()
0()
0()
0()
0()
0()
0()
0()
0()
0()
0()
0()
0()
0()
0()
0()
0()
0()
0()
0()
0()
0()
0()
4((0.498038 0.349081 0.25) (0.601962 0.361157 0.25) (0.498038 0.483843 0.25) (0.601962 0.493419 0.25))
4((0.678038 0.369996 0.25) (0.781962 0.382072 0.25) (0.678038 0.500428 0.25) (0.781962 0.510004 0.25))
4((0.678038 0.774085 0.0528312) (0.678038 0.774085 0.197169) (0.781962 0.778415 0.0528312) (0.781962 0.778415 0.197169))
4((0.858038 0.609326 0.25) (0.961962 0.617072 0.25) (0.858038 0.735428 0.25) (0.961962 0.740674 0.25))
4((0.82 0.386491 0.302831) (0.82 0.513509 0.302831) (0.82 0.386491 0.447169) (0.82 0.513509 0.447169))
4((0.858038 0.56317 0.302831) (0.858038 0.56317 0.447169) (0.961962 0.57183 0.302831) (0.961962 0.57183 0.447169))
4((0.678038 0.774085 0.302831) (0.678038 0.774085 0.447169) (0.781962 0.778415 0.302831) (0.781962 0.778415 0.447169))
4((0.28 0.808746 0.302831) (0.28 0.948754 0.302831) (0.28 0.808746 0.447169) (0.28 0.948754 0.447169))
4((0.318038 0.328166 0.25) (0.421962 0.340241 0.25) (0.318038 0.467259 0.25) (0.421962 0.476834 0.25))
4((0.64 0.365576 0.302831) (0.64 0.496924 0.302831) (0.64 0.365576 0.447169) (0.64 0.496924 0.447169))
4((0.138038 0.751585 0.0528312) (0.138038 0.751585 0.197169) (0.241962 0.755915 0.0528312) (0.241962 0.755915 0.197169))
4((0.138038 0.804081 0.25) (0.241962 0.807496 0.25) (0.138038 0.947504 0.25) (0.241962 0.948419 0.25))
4((0.138038 0.751585 0.302831) (0.138038 0.751585 0.447169) (0.241962 0.755915 0.302831) (0.241962 0.755915 0.447169))
4((0.46 0.814661 0.302831) (0.46 0.950339 0.302831) (0.46 0.814661 0.447169) (0.46 0.950339 0.447169))
)

