/*--------------------------------*- C++ -*----------------------------------*\
| =========                 |                                                 |
| \\      /  F ield         | OpenFOAM: The Open Source CFD Toolbox           |
|  \\    /   O peration     | Version:  v2412                                 |
|   \\  /    A nd           | Website:  www.openfoam.com                      |
|    \\/     M anipulation  |                                                 |
\*---------------------------------------------------------------------------*/
FoamFile
{
	version  2.0;
    format  ascii;
    class  volVectorField;
    location "0";
    object  rhoU_dof0;
}
// * * * * * * * * * * * * * * * * * * * * * * * * * * * * * * * * * * * * * //
dimensions [0 0 0 0 0 0 0];
internalField   uniform (1146.9263686028853 0 0);

boundaryField
{
    inlet
    {
        type            calculated;
	value           uniform (1146.9263686028853 0 0);
    }
    outlet2
    {
        type            calculated;
	value           uniform (1146.9263686028853 0 0);
    }
    outlet1
    {
        type            calculated;
	value           uniform (1146.9263686028853 0 0);
    }
    wall
    {
        type            calculated;
	value           uniform (1146.9263686028853 0 0);
    }
    symmetryBottom
    {
        type            symmetry;
    }
    symmetryZ0
    {
        type            symmetry;
    }
    symmetryZ05
    {
        type            symmetry;
    }
}


// ************************************************************************* //
