/*--------------------------------*- C++ -*----------------------------------*\
| =========                 |                                                 |
| \\      /  F ield         | OpenFOAM: The Open Source CFD Toolbox           |
|  \\    /   O peration     | Version:  2412                                  |
|   \\  /    A nd           | Website:  www.openfoam.com                      |
|    \\/     M anipulation  |                                                 |
\*---------------------------------------------------------------------------*/
FoamFile
{
    version     2.0;
    format      ascii;
    arch        "LSB;label=32;scalar=64";
    class       polyBoundaryMesh;
    location    "constant/polyMesh";
    object      boundary;
}
// * * * * * * * * * * * * * * * * * * * * * * * * * * * * * * * * * * * * * //

7
(
    wall-4
    {
        type            wall;
        inGroups        1(wall);
        nFaces          66;
        startFace       629;
    }
    velocity-inlet-5
    {
        type            patch;
        nFaces          8;
        startFace       695;
    }
    velocity-inlet-6
    {
        type            patch;
        nFaces          0;
        startFace       703;
    }
    pressure-outlet-7
    {
        type            patch;
        nFaces          7;
        startFace       703;
    }
    wall-8
    {
        type            wall;
        inGroups        1(wall);
        nFaces          0;
        startFace       710;
    }
    frontAndBackPlanes
    {
        type            wall;
        inGroups        1(wall);
        nFaces          918;
        startFace       710;
    }
    procBoundary0to1
    {
        type            processor;
        inGroups        1(processor);
        nFaces          38;
        startFace       1628;
        matchTolerance  0.0001;
        transform       unknown;
        myProcNo        0;
        neighbProcNo    1;
    }
)

// ************************************************************************* //
