/*--------------------------------*- C++ -*----------------------------------*\
| =========                 |                                                 |
| \\      /  F ield         | OpenFOAM: The Open Source CFD Toolbox           |
|  \\    /   O peration     | Version:  2412                                  |
|   \\  /    A nd           | Website:  www.openfoam.com                      |
|    \\/     M anipulation  |                                                 |
\*---------------------------------------------------------------------------*/
FoamFile
{
    version     2.0;
    format      ascii;
    arch        "LSB;label=32;scalar=64";
    class       polyBoundaryMesh;
    location    "constant/polyMesh";
    object      boundary;
}
// * * * * * * * * * * * * * * * * * * * * * * * * * * * * * * * * * * * * * //

7
(
    inlet
    {
        type            patch;
        nFaces          12;
        startFace       310;
    }
    outlet2
    {
        type            patch;
        nFaces          14;
        startFace       322;
    }
    outlet1
    {
        type            patch;
        nFaces          12;
        startFace       336;
    }
    wall
    {
        type            wall;
        inGroups        1(wall);
        nFaces          11;
        startFace       348;
    }
    symmetryBottom
    {
        type            symmetry;
        inGroups        1(symmetry);
        nFaces          3;
        startFace       359;
    }
    symmetryZ0
    {
        type            symmetry;
        inGroups        1(symmetry);
        nFaces          168;
        startFace       362;
    }
    symmetryZ05
    {
        type            symmetry;
        inGroups        1(symmetry);
        nFaces          168;
        startFace       530;
    }
)

// ************************************************************************* //
