/*--------------------------------*- C++ -*----------------------------------*\
| =========                 |                                                 |
| \\      /  F ield         | OpenFOAM: The Open Source CFD Toolbox           |
|  \\    /   O peration     | Version:  2412                                  |
|   \\  /    A nd           | Website:  www.openfoam.com                      |
|    \\/     M anipulation  |                                                 |
\*---------------------------------------------------------------------------*/
FoamFile
{
    version     2.0;
    format      ascii;
    arch        "LSB;label=32;scalar=64";
    class       polyBoundaryMesh;
    location    "constant/polyMesh";
    object      boundary;
}
// * * * * * * * * * * * * * * * * * * * * * * * * * * * * * * * * * * * * * //

7
(
    inlet
    {
        type            patch;
        nFaces          800;
        startFace       92800;
    }
    outlet2
    {
        type            patch;
        nFaces          800;
        startFace       93600;
    }
    outlet1
    {
        type            patch;
        nFaces          800;
        startFace       94400;
    }
    wall
    {
        type            wall;
        inGroups        1(wall);
        nFaces          720;
        startFace       95200;
    }
    symmetryBottom
    {
        type            symmetry;
        inGroups        1(symmetry);
        nFaces          80;
        startFace       95920;
    }
    symmetryZ0
    {
        type            symmetry;
        inGroups        1(symmetry);
        nFaces          1600;
        startFace       96000;
    }
    symmetryZ05
    {
        type            symmetry;
        inGroups        1(symmetry);
        nFaces          1600;
        startFace       97600;
    }
)

// ************************************************************************* //
