/*--------------------------------*- C++ -*----------------------------------*\
| =========                 |                                                 |
| \\      /  F ield         | OpenFOAM: The Open Source CFD Toolbox           |
|  \\    /   O peration     | Version:  2412                                  |
|   \\  /    A nd           | Website:  www.openfoam.com                      |
|    \\/     M anipulation  |                                                 |
\*---------------------------------------------------------------------------*/
FoamFile
{
    version     2.0;
    format      ascii;
    arch        "LSB;label=32;scalar=64";
    class       polyBoundaryMesh;
    location    "constant/polyMesh";
    object      boundary;
}
// * * * * * * * * * * * * * * * * * * * * * * * * * * * * * * * * * * * * * //

7
(
    inlet
    {
        type            patch;
        nFaces          1250;
        startFace       182500;
    }
    outlet2
    {
        type            patch;
        nFaces          1250;
        startFace       183750;
    }
    outlet1
    {
        type            patch;
        nFaces          1250;
        startFace       185000;
    }
    wall
    {
        type            wall;
        inGroups        1(wall);
        nFaces          1125;
        startFace       186250;
    }
    symmetryBottom
    {
        type            symmetry;
        inGroups        1(symmetry);
        nFaces          125;
        startFace       187375;
    }
    symmetryZ0
    {
        type            symmetry;
        inGroups        1(symmetry);
        nFaces          2500;
        startFace       187500;
    }
    symmetryZ05
    {
        type            symmetry;
        inGroups        1(symmetry);
        nFaces          2500;
        startFace       190000;
    }
)

// ************************************************************************* //
