/*--------------------------------*- C++ -*----------------------------------*\
| =========                 |                                                 |
| \\      /  F ield         | OpenFOAM: The Open Source CFD Toolbox           |
|  \\    /   O peration     | Version:  2412                                  |
|   \\  /    A nd           | Website:  www.openfoam.com                      |
|    \\/     M anipulation  |                                                 |
\*---------------------------------------------------------------------------*/
FoamFile
{
    version     2.0;
    format      ascii;
    arch        "LSB;label=32;scalar=64";
    class       polyBoundaryMesh;
    location    "constant/polyMesh";
    object      boundary;
}
// * * * * * * * * * * * * * * * * * * * * * * * * * * * * * * * * * * * * * //

9
(
    inlet
    {
        type            patch;
        nFaces          0;
        startFace       23;
    }
    outlet2
    {
        type            patch;
        nFaces          0;
        startFace       23;
    }
    outlet1
    {
        type            patch;
        nFaces          6;
        startFace       23;
    }
    wall
    {
        type            wall;
        inGroups        1(wall);
        nFaces          6;
        startFace       29;
    }
    symmetryBottom
    {
        type            symmetry;
        inGroups        1(symmetry);
        nFaces          0;
        startFace       35;
    }
    symmetryZ0
    {
        type            symmetry;
        inGroups        1(symmetry);
        nFaces          7;
        startFace       35;
    }
    symmetryZ05
    {
        type            symmetry;
        inGroups        1(symmetry);
        nFaces          7;
        startFace       42;
    }
    procBoundary1to0
    {
        type            processor;
        inGroups        1(processor);
        nFaces          8;
        startFace       49;
        matchTolerance  0.0001;
        transform       unknown;
        myProcNo        1;
        neighbProcNo    0;
    }
    procBoundary1to2
    {
        type            processor;
        inGroups        1(processor);
        nFaces          4;
        startFace       57;
        matchTolerance  0.0001;
        transform       unknown;
        myProcNo        1;
        neighbProcNo    2;
    }
)

// ************************************************************************* //
