/*--------------------------------*- C++ -*----------------------------------*\
| =========                 |                                                 |
| \\      /  F ield         | OpenFOAM: The Open Source CFD Toolbox           |
|  \\    /   O peration     | Version:  2412                                  |
|   \\  /    A nd           | Website:  www.openfoam.com                      |
|    \\/     M anipulation  |                                                 |
\*---------------------------------------------------------------------------*/
FoamFile
{
    version     2.0;
    format      ascii;
    arch        "LSB;label=32;scalar=64";
    class       scalarListList;
    location    "/home/nam-ha-tran/OpenFOAM/DGFoam/applications/test/testCase/processor1/constant/polyMesh";
    object      dgFaceJacobian;
}
// * * * * * * * * * * * * * * * * * * * * * * * * * * * * * * * * * * * * * //


61
(
0()
0()
0()
0()
0()
0()
0()
0()
0()
0()
0()
0()
0()
0()
0()
0()
0()
0()
0()
0()
0()
0()
0()
0()
0()
0()
0()
0()
0()
0()
0()
0()
0()
0()
0()
0()
0()
0()
0()
0()
0()
0()
0()
0()
0()
0()
0()
0()
0()
4(0.0105037 0.0103088 0.0105037 0.0103088)
4(0.0101662 0.00997132 0.0101662 0.00997132)
4(0.0112598 0.0112598 0.0112598 0.0112598)
4(0.00982868 0.00963382 0.00982868 0.00963382)
4(0.01375 0.01375 0.01375 0.01375)
4(0.011289 0.011289 0.011289 0.011289)
4(0.0112598 0.0112598 0.0112598 0.0112598)
4(0.0151563 0.0151563 0.0151563 0.0151562)
4(0.0113375 0.0113375 0.0113375 0.0113375)
4(0.011289 0.011289 0.011289 0.011289)
4(0.0113375 0.0113375 0.0113375 0.0113375)
4(0.011289 0.011289 0.011289 0.011289)
)

