/*--------------------------------*- C++ -*----------------------------------*\
| =========                 |                                                 |
| \\      /  F ield         | OpenFOAM: The Open Source CFD Toolbox           |
|  \\    /   O peration     | Version:  2412                                  |
|   \\  /    A nd           | Website:  www.openfoam.com                      |
|    \\/     M anipulation  |                                                 |
\*---------------------------------------------------------------------------*/
FoamFile
{
    version     2.0;
    format      ascii;
    arch        "LSB;label=32;scalar=64";
    class       scalarListList;
    location    "/home/nam-ha-tran/OpenFOAM/DGFoam/applications/test/testCase/processor3/constant/polyMesh";
    object      dgFaceJacobian;
}
// * * * * * * * * * * * * * * * * * * * * * * * * * * * * * * * * * * * * * //


61
(
0()
0()
0()
0()
0()
0()
0()
0()
0()
0()
0()
0()
0()
0()
0()
0()
0()
0()
0()
0()
0()
0()
0()
0()
0()
0()
0()
0()
0()
0()
0()
0()
0()
0()
0()
0()
0()
0()
0()
0()
0()
0()
0()
0()
0()
0()
0()
0()
0()
4(0.0112598 0.0112598 0.0112598 0.0112598)
4(0.0111787 0.0109838 0.0111787 0.0109838)
4(0.0112598 0.0112598 0.0112598 0.0112598)
4(0.0146875 0.0146875 0.0146875 0.0146875)
4{0.003125}
4{0.003125}
4{0.003125}
4(0.003125 0.003125 0.003125 0.003125)
4{0.003125}
4(0.015625 0.015625 0.015625 0.015625)
4(0.0111787 0.0109838 0.0111787 0.0109838)
4(0.0146875 0.0146875 0.0146875 0.0146875)
)

